<routes>
<!--   <vType id="pedestrian" length=".215" width=".478" height="1.719" minGap=".5" accel="1.5" decel="2" maxSpeed="1.5" guiShape="pedestrian"/>-->
   <vType id="car" accel="0.8" decel="4.5" sigma="0.5" minGap="2.5" length="5" maxSpeed="70" speedDev="0.1"/>
</routes>