<?xml version="1.0" encoding="UTF-8"?>

<!-- generated on 2020年02月15日 星期六 22时26分14秒 by Eclipse SUMO GUI Version 1.4.0
<configuration xmlns:xsi="http://www.w3.org/2001/XMLSchema-instance" xsi:noNamespaceSchemaLocation="http://sumo.dlr.de/xsd/sumoConfiguration.xsd">

    <input>
        <net-file value="/home/rong/flow/flow/core/kernel/network/debug/cfg/highway_20200215-2226131581776773.828097.net.xml"/>
        <route-files value="/home/rong/flow/flow/core/kernel/network/debug/cfg/highway_20200215-2226131581776773.828097.rou.xml"/>
        <additional-files value="/home/rong/flow/flow/core/kernel/network/debug/cfg/highway_20200215-2226131581776773.828097.add.xml"/>
    </input>

    <output>
        <emission-output value="./data/highway_20200215-2226131581776773.828097-emission.xml"/>
    </output>

    <time>
        <begin value="0"/>
        <step-length value="0.2"/>
    </time>

    <processing>
        <collision.check-junctions value="true"/>
        <time-to-teleport value="-1"/>
    </processing>

    <report>
        <no-step-log value="true"/>
    </report>

    <traci_server>
        <remote-port value="35503"/>
        <num-clients value="1"/>
    </traci_server>

    <gui_only>
        <gui-settings-file value="/home/rong/flow/flow/core/kernel/network/debug/cfg/highway_20200215-2226131581776773.828097.gui.cfg"/>
        <tracker-interval value="0.2"/>
    </gui_only>

</configuration>
